1
9
.tran 100n 1m
5
1
/POWER-AMP/VSAVN
V
1
/POWER-AMP/VSAVP
V
1
/POWER-AMP/VSFN
V
1
/POWER-AMP/VSFP
V
1
VMOUT
V
