1
9
.tran 100n 1m
2
2
Q605
Ic
1
Net-(D606-Pad1)
V
